/*--------------------------------*- C++ -*----------------------------------*\
  =========                 |
  \\      /  F ield         | OpenFOAM: The Open Source CFD Toolbox
   \\    /   O peration     | Website:  https://openfoam.org
    \\  /    A nd           | Version:  10
     \\/     M anipulation  |
\*---------------------------------------------------------------------------*/
FoamFile
{
    format      ascii;
    class       volScalarField;
    object      T;
}
// * * * * * * * * * * * * * * * * * * * * * * * * * * * * * * * * * * * * * //

dimensions      [0 0 0 1 0 0 0];

internalField   uniform 300;

boundaryField
{
    inlet
    {
        type            fixedValue;
        value           uniform 600;
    }

    atm1
    {
        type            zeroGradient;
    }
    atm2
    {
        type            fixedValue;
        value           uniform 300;
//        type            zeroGradient;
    }
    atm3
    {
        type            fixedValue;
        value           uniform 300;
    }
    wall
    {
        type            zeroGradient;
    }
    wedge0
    {
        type            wedge;
    }
    wedge1
    {
        type            wedge;
    }
    defaultFaces
    {
        type            zeroGradient;
    }
}

// ************************************************************************* //
