/*--------------------------------*- C++ -*----------------------------------*\
  =========                 |
  \\      /  F ield         | OpenFOAM: The Open Source CFD Toolbox
   \\    /   O peration     | Website:  https://openfoam.org
    \\  /    A nd           | Version:  10
     \\/     M anipulation  |
\*---------------------------------------------------------------------------*/
FoamFile
{
    format      ascii;
    class       dictionary;
    location    "system";
    object      controlDict;
}
// * * * * * * * * * * * * * * * * * * * * * * * * * * * * * * * * * * * * * //

application     rhoPimpleFoam;

startFrom       latestTime;

startTime       0;

stopAt          endTime;

endTime         0.001;

deltaT          1e-06;

writeControl    runTime;

writeInterval   0.0001;

purgeWrite      0;

writeFormat     binary;

writePrecision  10;

writeCompression off;

timeFormat      general;

timePrecision   8;

runTimeModifiable true;

functions
{
    libs            ("libfieldFunctionObjects.so");

    Ma
    {
        type            MachNo;
        executeControl  writeTime;
        writeControl    writeTime;
    }
}


// ************************************************************************* //
