/*--------------------------------*- C++ -*----------------------------------*\
| =========                 |                                                 |
| \\      /  F ield         | OpenFOAM: The Open Source CFD Toolbox           |
|  \\    /   O peration     | Version:  2412                                  |
|   \\  /    A nd           | Website:  www.openfoam.com                      |
|    \\/     M anipulation  |                                                 |
\*---------------------------------------------------------------------------*/
FoamFile
{
    version     2.0;
    format      ascii;
    arch        "LSB;label=32;scalar=64";
    class       polyBoundaryMesh;
    location    "constant/polyMesh";
    object      boundary;
}
// * * * * * * * * * * * * * * * * * * * * * * * * * * * * * * * * * * * * * //

6
(
    walls
    {
        type            wall;
        nFaces          202;
        startFace       106491;
    }
    outlet
    {
        type            patch;
        
        nFaces          412;
        startFace       106693;
    }
    inlet
    {
        type            patch;
        
        nFaces          178;
        startFace       107105;
    }
    wedge1
    {
        type            wedge;
        nFaces          9775;
        startFace       107283;
    }
    wedge2
    {
        type            wedge;
        nFaces          9775;
        startFace       117058;
    }
    defaultFaces
    {
        type            empty;
        nFaces          536;
        startFace       126833;
    }
)

// ************************************************************************* //
