/*--------------------------------*- C++ -*----------------------------------*\
| =========                 |                                                 |
| \\      /  F ield         | OpenFOAM: The Open Source CFD Toolbox           |
|  \\    /   O peration     | Version:  2412                                  |
|   \\  /    A nd           | Website:  www.openfoam.com                      |
|    \\/     M anipulation  |                                                 |
\*---------------------------------------------------------------------------*/
FoamFile
{
    version     2.0;
    format      ascii;
    arch        "LSB;label=32;scalar=64";
    class       polyBoundaryMesh;
    location    "constant/polyMesh";
    object      boundary;
}
// * * * * * * * * * * * * * * * * * * * * * * * * * * * * * * * * * * * * * //

5
(
    inlet
    {
        type            patch;
        physicalType    patch;
        nFaces          48;
        startFace       168;
    }
    outlet
    {
        type            patch;
        physicalType    patch;
        nFaces          4;
        startFace       216;
    }
    walls
    {
        type            patch;
        physicalType    patch;
        nFaces          18;
        startFace       220;
    }
    wedge
    {
        type            patch;
        physicalType    patch;
        nFaces          3;
        startFace       238;
    }
    defaultFaces
    {
        type            patch;
        nFaces          51;
        startFace       241;
    }
)

// ************************************************************************* //
