/*--------------------------------*- C++ -*----------------------------------*\
| =========                 |                                                 |
| \\      /  F ield         | OpenFOAM: The Open Source CFD Toolbox           |
|  \\    /   O peration     | Version:  2412                                  |
|   \\  /    A nd           | Website:  www.openfoam.com                      |
|    \\/     M anipulation  |                                                 |
\*---------------------------------------------------------------------------*/
FoamFile
{
    version     2.0;
    format      ascii;
    arch        "LSB;label=32;scalar=64";
    class       polyBoundaryMesh;
    location    "constant/polyMesh";
    object      boundary;
}
// * * * * * * * * * * * * * * * * * * * * * * * * * * * * * * * * * * * * * //

5
(
    wedge2
    {
        type            wedge;
        nFaces          918;
        startFace       4278;
    }
    walls
    {
        type            wall;
        nFaces          66;
        startFace       5196;
    }
    outlet
    {
        type            patch;
        nFaces          59;
        startFace       5262;
    }
    inlet
    {
        type            patch;
        nFaces          9;
        startFace       5321;
    }
    wedge1
    {
        type            wedge;
        nFaces          920;
        startFace       5330;
    }
)

// ************************************************************************* //
